@<TRIPOS>MOLECULE
BZS
 27 27 1 0 0
SMALL
NO_CHARGES
****

@<TRIPOS>ATOM
      1 C1         66.2650   32.3170   71.9920 C.2       1 BZS       0.0000
      2 C2         65.8040   33.7440   72.3260 C.3       1 BZS       0.0000
      3 CA         64.4170   33.8480   73.0340 C.3       1 BZS       0.0000
      4 C          63.3680   33.0550   72.3240 C.2       1 BZS       0.0000
      5 CB         63.8890   35.2680   73.1360 C.3       1 BZS       0.0000
      6 CG         63.8640   35.9840   71.8330 C.ar      1 BZS       0.0000
      7 CD1        62.8890   35.7060   70.8730 C.ar      1 BZS       0.0000
      8 CD2        64.8570   36.9340   71.5690 C.ar      1 BZS       0.0000
      9 CE1        62.9350   36.4120   69.6660 C.ar      1 BZS       0.0000
     10 CE2        64.8970   37.6770   70.3890 C.ar      1 BZS       0.0000
     11 CZ         63.9190   37.3880   69.4310 C.ar      1 BZS       0.0000
     12 O1         66.1820   31.3660   72.8620 O.2       1 BZS       0.0000
     13 O2         66.7490   32.1670   70.8690 O.3       1 BZS       0.0000
     14 O3         62.3620   32.8050   72.9780 O.2       1 BZS       0.0000
     15 O4         63.5310   32.7750   71.1280 O.3       1 BZS       0.0000
     16 H21        66.5820   34.2660   72.9290 H         1 BZS       0.0000
     17 H22        65.8120   34.3740   71.4060 H         1 BZS       0.0000
     18 HA         64.6080   33.4460   74.0560 H         1 BZS       0.0000
     19 HB1        62.8810   35.2810   73.6140 H         1 BZS       0.0000
     20 HB2        64.4620   35.8490   73.8950 H         1 BZS       0.0000
     21 HD1        62.1060   34.9510   71.0620 H         1 BZS       0.0000
     22 HD2        65.6420   37.1040   72.3240 H         1 BZS       0.0000
     23 HE1        62.1830   36.1950   68.8870 H         1 BZS       0.0000
     24 HE2        65.6620   38.4530   70.2220 H         1 BZS       0.0000
     25 HZ         63.9230   37.9380   68.4750 H         1 BZS       0.0000
     26 HO2        67.0340   31.2840   70.6620 H         1 BZS       0.0000
     27 HO4        62.8640   32.2700   70.6760 H         1 BZS       0.0000

@<TRIPOS>BOND
     1    1    2 1
     2    1   12 2
     3    1   13 1
     4    2    3 1
     5    2   16 1
     6    2   17 1
     7    3    4 1
     8    3    5 1
     9    3   18 1
    10    4   14 2
    11    4   15 1
    12    5    6 1
    13    5   19 1
    14    5   20 1
    15    6    7 2
    16    6    8 1
    17    7    9 1
    18    7   21 1
    19    8   10 2
    20    8   22 1
    21    9   11 2
    22    9   23 1
    23   10   11 1
    24   10   24 1
    25   11   25 1
    26   13   26 1
    27   15   27 1

@<TRIPOS>SUBSTRUCTURE
     1 BZS         1 TEMP              0 ****  ****    0 ROOT
